<routes>
<vType id="car" accel="2.6" decel="4.5" sigma="0.6" tau="1.2" />
<flow id="day_0" from="667958216" to="1420264372#1" vehsPerHour="728" begin="0" end="3600" />
<flow id="day_1" from="667958216" to="174299621" vehsPerHour="1092" begin="0" end="3600" />
<flow id="day_2" from="667958216" to="751413553" vehsPerHour="1092" begin="0" end="3600" />
<flow id="day_3" from="667958216" to="721607116" vehsPerHour="2028" begin="0" end="3600" />
<flow id="day_4" from="667958216" to="84751021" vehsPerHour="910" begin="0" end="3600" />
<flow id="day_5" from="667958216" to="835094679#8" vehsPerHour="10" begin="0" end="3600" />
<flow id="day_6" from="1420264373" to="667961042" vehsPerHour="728" begin="0" end="3600" />
<flow id="day_7" from="1420264373" to="174299621" vehsPerHour="2730" begin="0" end="3600" />
<flow id="day_8" from="1420264373" to="751413553" vehsPerHour="1092" begin="0" end="3600" />
<flow id="day_9" from="1420264373" to="721607116" vehsPerHour="728" begin="0" end="3600" />
<flow id="day_10" from="1420264373" to="84751021" vehsPerHour="910" begin="0" end="3600" />
<flow id="day_11" from="1420264373" to="835094679#8" vehsPerHour="10" begin="0" end="3600" />
<flow id="day_12" from="218207734" to="667961042" vehsPerHour="840" begin="0" end="3600" />
<flow id="day_13" from="218207734" to="1420264372#1" vehsPerHour="840" begin="0" end="3600" />
<flow id="day_14" from="218207734" to="751413553" vehsPerHour="840" begin="0" end="3600" />
<flow id="day_15" from="218207734" to="721607116" vehsPerHour="840" begin="0" end="3600" />
<flow id="day_16" from="218207734" to="84751021" vehsPerHour="840" begin="0" end="3600" />
<flow id="day_17" from="218207734" to="835094679#8" vehsPerHour="10" begin="0" end="3600" />
<flow id="day_18" from="368327489" to="667961042" vehsPerHour="840" begin="0" end="3600" />
<flow id="day_19" from="368327489" to="1420264372#1" vehsPerHour="840" begin="0" end="3600" />
<flow id="day_20" from="368327489" to="174299621" vehsPerHour="840" begin="0" end="3600" />
<flow id="day_21" from="368327489" to="721607116" vehsPerHour="840" begin="0" end="3600" />
<flow id="day_22" from="368327489" to="84751021" vehsPerHour="840" begin="0" end="3600" />
<flow id="day_23" from="368327489" to="835094679#8" vehsPerHour="10" begin="0" end="3600" />
<flow id="day_24" from="187782398" to="667961042" vehsPerHour="1560" begin="0" end="3600" />
<flow id="day_25" from="187782398" to="1420264372#1" vehsPerHour="560" begin="0" end="3600" />
<flow id="day_26" from="187782398" to="174299621" vehsPerHour="840" begin="0" end="3600" />
<flow id="day_27" from="187782398" to="751413553" vehsPerHour="840" begin="0" end="3600" />
<flow id="day_28" from="187782398" to="84751021" vehsPerHour="700" begin="0" end="3600" />
<flow id="day_29" from="187782398" to="835094679#8" vehsPerHour="10" begin="0" end="3600" />
<flow id="day_30" from="84751023" to="667961042" vehsPerHour="910" begin="0" end="3600" />
<flow id="day_31" from="84751023" to="1420264372#1" vehsPerHour="910" begin="0" end="3600" />
<flow id="day_32" from="84751023" to="174299621" vehsPerHour="1092" begin="0" end="3600" />
<flow id="day_33" from="84751023" to="751413553" vehsPerHour="3640" begin="0" end="3600" />
<flow id="day_34" from="84751023" to="721607116" vehsPerHour="4550" begin="0" end="3600" />
<flow id="day_35" from="84751023" to="835094679#8" vehsPerHour="10" begin="0" end="3600" />
<flow id="day_36" from="-835094679#8" to="667961042" vehsPerHour="10" begin="0" end="3600" />
<flow id="day_37" from="-835094679#8" to="1420264372#1" vehsPerHour="10" begin="0" end="3600" />
<flow id="day_38" from="-835094679#8" to="174299621" vehsPerHour="10" begin="0" end="3600" />
<flow id="day_39" from="-835094679#8" to="751413553" vehsPerHour="10" begin="0" end="3600" />
<flow id="day_40" from="-835094679#8" to="721607116" vehsPerHour="10" begin="0" end="3600" />
<flow id="day_41" from="-835094679#8" to="84751021" vehsPerHour="10" begin="0" end="3600" />
</routes>