<?xml version="1.0" encoding="UTF-8"?>

<!-- generated on 2026-04-03T13:09:28.431928+03:00 by Eclipse SUMO netedit 1.25.0
<neteditConfiguration xmlns:xsi="http://www.w3.org/2001/XMLSchema-instance" xsi:noNamespaceSchemaLocation="http://sumo.dlr.de/xsd/neteditConfiguration.xsd">

    <input>
        <sumo-net-file value="C:\Users\himla\OneDrive\Desktop\VKR\Сценарии\2 - Операционное управление\Развязка 2\Приоритеты\SC2_2_1.net.xml"/>
    </input>

    <output>
        <output-file value="C:\Users\himla\OneDrive\Desktop\VKR\Сценарии\2 - Операционное управление\Развязка 2\Приоритеты\SC2_2_1.net.xml"/>
    </output>

    <processing>
        <geometry.min-radius.fix.railways value="false"/>
        <geometry.avoid-overlap value="false"/>
        <geometry.max-grade.fix value="false"/>
        <offset.disable-normalization value="true"/>
        <lefthand value="0"/>
    </processing>

    <junctions>
        <no-turnarounds value="true"/>
        <junctions.corner-detail value="5"/>
        <junctions.limit-turn-speed value="5.50"/>
        <rectangular-lane-cut value="0"/>
    </junctions>

    <pedestrian>
        <walkingareas value="0"/>
    </pedestrian>

</neteditConfiguration>
-->

<net version="1.20" junctionCornerDetail="5" limitTurnSpeed="5.50" avoidOverlap="0" xmlns:xsi="http://www.w3.org/2001/XMLSchema-instance" xsi:noNamespaceSchemaLocation="http://sumo.dlr.de/xsd/net_file.xsd">

    <location netOffset="0.00,0.00" convBoundary="360650.58,6640944.30,363088.19,6648587.37" origBoundary="30.496112,59.873610,30.784172,59.964283" projParameter="+proj=utm +zone=36 +ellps=WGS84 +datum=WGS84 +units=m +no_defs"/>

    <type id="highway.motorway" priority="14" numLanes="2" speed="39.44" allow="private emergency authority army vip passenger hov taxi bus coach delivery truck trailer motorcycle evehicle custom1 custom2" oneway="1"/>
    <type id="highway.primary" priority="12" numLanes="2" speed="27.78" disallow="tram rail_urban rail rail_electric rail_fast ship container cable_car subway aircraft wheelchair scooter drone" oneway="0"/>
    <type id="highway.primary_link" priority="7" numLanes="1" speed="22.22" disallow="tram rail_urban rail rail_electric rail_fast ship container cable_car subway aircraft wheelchair scooter drone" oneway="0"/>
    <type id="highway.secondary" priority="11" numLanes="1" speed="27.78" disallow="tram rail_urban rail rail_electric rail_fast ship container cable_car subway aircraft wheelchair scooter drone" oneway="0"/>
    <type id="highway.secondary_link" priority="6" numLanes="1" speed="22.22" disallow="tram rail_urban rail rail_electric rail_fast ship container cable_car subway aircraft wheelchair scooter drone" oneway="0"/>
    <type id="highway.service" priority="1" numLanes="1" speed="5.56" allow="pedestrian delivery bicycle" oneway="0"/>
    <type id="highway.trunk" priority="13" numLanes="2" speed="27.78" disallow="pedestrian bicycle tram rail_urban rail rail_electric rail_fast ship container cable_car subway aircraft wheelchair scooter drone" oneway="0"/>
    <type id="highway.unclassified" priority="4" numLanes="1" speed="13.89" disallow="tram rail_urban rail rail_electric rail_fast ship container cable_car subway aircraft wheelchair scooter drone" oneway="0"/>

    <edge id=":10052949434_0" function="internal">
        <lane id=":10052949434_0_0" index="0" disallow="tram rail_urban rail rail_electric rail_fast ship container cable_car subway aircraft wheelchair scooter drone" speed="16.67" length="0.29" shape="361481.90,6642688.46 361481.84,6642688.18"/>
    </edge>
    <edge id=":10052949434_1" function="internal">
        <lane id=":10052949434_1_0" index="0" disallow="tram rail_urban rail rail_electric rail_fast ship container cable_car subway aircraft wheelchair scooter drone" speed="16.67" length="0.31" shape="361484.96,6642687.48 361485.03,6642687.79"/>
    </edge>
    <edge id=":10606777375_0" function="internal">
        <lane id=":10606777375_0_0" index="0" disallow="tram rail_urban rail rail_electric rail_fast ship container cable_car subway aircraft wheelchair scooter drone" speed="20.84" length="1.47" shape="362987.11,6647957.09 362987.41,6647957.09"/>
        <lane id=":10606777375_0_1" index="1" disallow="tram rail_urban rail rail_electric rail_fast ship container cable_car subway aircraft wheelchair scooter drone" speed="20.84" length="1.47" shape="362987.08,6647960.29 362987.41,6647957.09"/>
        <lane id=":10606777375_0_2" index="2" disallow="tram rail_urban rail rail_electric rail_fast ship container cable_car subway aircraft wheelchair scooter drone" speed="20.84" length="1.47" shape="362987.08,6647960.29 362987.38,6647960.29"/>
        <lane id=":10606777375_0_3" index="3" disallow="tram rail_urban rail rail_electric rail_fast ship container cable_car subway aircraft wheelchair scooter drone" speed="20.84" length="1.47" shape="362987.08,6647960.29 362987.35,6647963.49"/>
        <lane id=":10606777375_0_4" index="4" disallow="tram rail_urban rail rail_electric rail_fast ship container cable_car subway aircraft wheelchair scooter drone" speed="20.84" length="1.47" shape="362987.05,6647963.49 362987.35,6647963.49"/>
    </edge>
    <edge id=":10749505962_0" function="internal">
        <lane id=":10749505962_0_0" index="0" disallow="tram rail_urban rail rail_electric rail_fast ship container cable_car subway aircraft wheelchair scooter drone" speed="25.00" length="18.39" shape="362944.91,6647973.69 362938.95,6647974.27 362934.39,6647975.52 362930.60,6647976.77 362926.98,6647977.41"/>
    </edge>
    <edge id=":10749505962_1" function="internal">
        <lane id=":10749505962_1_0" index="0" disallow="tram rail_urban rail rail_electric rail_fast ship container cable_car subway aircraft wheelchair scooter drone" speed="25.00" length="18.68" shape="362944.91,6647973.69 362926.42,6647973.63"/>
        <lane id=":10749505962_1_1" index="1" disallow="tram rail_urban rail rail_electric rail_fast ship container cable_car subway aircraft wheelchair scooter drone" speed="25.00" length="18.68" shape="362944.91,6647973.69 362939.38,6647973.21 362935.67,6647972.09 362931.95,6647970.96 362926.43,6647970.43"/>
    </edge>
    <edge id=":10749505962_3" function="internal">
        <lane id=":10749505962_3_0" index="0" disallow="tram rail_urban rail rail_electric rail_fast ship container cable_car subway aircraft wheelchair scooter drone" speed="25.00" length="2.77" shape="362944.89,6647970.49 362942.16,6647970.97"/>
    </edge>
    <edge id=":10749505962_4" function="internal">
        <lane id=":10749505962_4_0" index="0" disallow="tram rail_urban rail rail_electric rail_fast ship container cable_car subway aircraft wheelchair scooter drone" speed="25.00" length="18.64" shape="362944.89,6647970.49 362939.37,6647971.01 362935.65,6647972.09 362931.94,6647973.16 362926.42,6647973.63"/>
        <lane id=":10749505962_4_1" index="1" disallow="tram rail_urban rail rail_electric rail_fast ship container cable_car subway aircraft wheelchair scooter drone" speed="25.00" length="18.64" shape="362944.89,6647970.49 362926.43,6647970.43"/>
    </edge>
    <edge id=":10749505962_6" function="internal">
        <lane id=":10749505962_6_0" index="0" disallow="tram rail_urban rail rail_electric rail_fast ship container cable_car subway aircraft wheelchair scooter drone" speed="25.00" length="16.67" shape="362942.16,6647970.97 362938.75,6647971.57 362934.21,6647973.92 362930.54,6647976.28 362926.98,6647977.41"/>
    </edge>
    <edge id=":1119772803_0" function="internal">
        <lane id=":1119772803_0_0" index="0" allow="private emergency authority army vip passenger hov taxi bus coach delivery truck trailer motorcycle evehicle custom1 custom2" speed="30.56" length="0.28" shape="361639.41,6644312.11 361639.41,6644311.91"/>
        <lane id=":1119772803_0_1" index="1" allow="private emergency authority army vip passenger hov taxi bus coach delivery truck trailer motorcycle evehicle custom1 custom2" speed="30.56" length="0.28" shape="361642.61,6644312.13 361642.61,6644311.87"/>
        <lane id=":1119772803_0_2" index="2" allow="private emergency authority army vip passenger hov taxi bus coach delivery truck trailer motorcycle evehicle custom1 custom2" speed="30.56" length="0.28" shape="361645.81,6644312.15 361645.81,6644311.84"/>
        <lane id=":1119772803_0_3" index="3" allow="private emergency authority army vip passenger hov taxi bus coach delivery truck trailer motorcycle evehicle custom1 custom2" speed="30.56" length="0.28" shape="361649.01,6644312.18 361649.01,6644311.81"/>
    </edge>
    <edge id=":1119772804_0" function="internal">
        <lane id=":1119772804_0_0" index="0" allow="private emergency authority army vip passenger hov taxi bus coach delivery truck trailer motorcycle evehicle custom1 custom2" speed="30.56" length="0.29" shape="361638.81,6644393.55 361638.81,6644393.18"/>
        <lane id=":1119772804_0_1" index="1" allow="private emergency authority army vip passenger hov taxi bus coach delivery truck trailer motorcycle evehicle custom1 custom2" speed="30.56" length="0.29" shape="361642.01,6644393.52 361642.01,6644393.21"/>
        <lane id=":1119772804_0_2" index="2" allow="private emergency authority army vip passenger hov taxi bus coach delivery truck trailer motorcycle evehicle custom1 custom2" speed="30.56" length="0.29" shape="361645.21,6644393.49 361645.21,6644393.23"/>
        <lane id=":1119772804_0_3" index="3" allow="private emergency authority army vip passenger hov taxi bus coach delivery truck trailer motorcycle evehicle custom1 custom2" speed="30.56" length="0.29" shape="361648.41,6644393.46 361648.41,6644393.25"/>
    </edge>
    <edge id=":1119772805_0" function="internal">
        <lane id=":1119772805_0_0" index="0" allow="private emergency authority army vip passenger hov taxi bus coach delivery truck trailer motorcycle evehicle custom1 custom2" speed="30.56" length="0.30" shape="361668.28,6644391.56 361668.28,6644391.82"/>
        <lane id=":1119772805_0_1" index="1" allow="private emergency authority army vip passenger hov taxi bus coach delivery truck trailer motorcycle evehicle custom1 custom2" speed="30.56" length="0.30" shape="361665.08,6644391.56 361665.08,6644391.85"/>
        <lane id=":1119772805_0_2" index="2" allow="private emergency authority army vip passenger hov taxi bus coach delivery truck trailer motorcycle evehicle custom1 custom2" speed="30.56" length="0.30" shape="361661.88,6644391.56 361661.88,6644391.87"/>
        <lane id=":1119772805_0_3" index="3" allow="private emergency authority army vip passenger hov taxi bus coach delivery truck trailer motorcycle evehicle custom1 custom2" speed="30.56" length="0.30" shape="361658.68,6644391.56 361658.68,6644391.89"/>
    </edge>
    <edge id=":11300454194_0" function="internal">
        <lane id=":11300454194_0_0" index="0" disallow="tram rail_urban rail rail_electric rail_fast ship container cable_car subway aircraft wheelchair scooter drone" speed="16.67" length="0.29" shape="361470.69,6642542.72 361470.59,6642542.45"/>
    </edge>
    <edge id=":11300454194_1" function="internal">
        <lane id=":11300454194_1_0" index="0" disallow="tram rail_urban rail rail_electric rail_fast ship container cable_car subway aircraft wheelchair scooter drone" speed="16.67" length="0.31" shape="361473.59,6642541.33 361473.69,6642541.62"/>
    </edge>
    <edge id=":11300454223_0" function="internal">
        <lane id=":11300454223_0_0" index="0" disallow="tram rail_urban rail rail_electric rail_fast ship container cable_car subway aircraft wheelchair scooter drone" speed="16.67" length="0.30" shape="361465.61,6642617.35 361465.53,6642617.06"/>
    </edge>
    <edge id=":11300454223_1" function="internal">
        <lane id=":11300454223_1_0" index="0" disallow="tram rail_urban rail rail_electric rail_fast ship container cable_car subway aircraft wheelchair scooter drone" speed="16.67" length="0.30" shape="361468.61,6642616.19 361468.69,6642616.48"/>
    </edge>
    <edge id=":11436922548_0" function="internal">
        <lane id=":11436922548_0_0" index="0" allow="pedestrian delivery bicycle" speed="4.60" length="4.02" shape="361450.73,6642489.20 361450.15,6642487.96 361449.50,6642487.17 361448.76,6642486.82 361447.95,6642486.93"/>
    </edge>
    <edge id=":11436922548_1" function="internal">
        <lane id=":11436922548_1_0" index="0" disallow="tram rail_urban rail rail_electric rail_fast ship container cable_car subway aircraft wheelchair scooter drone" speed="16.67" length="9.40" shape="361450.73,6642489.20 361447.45,6642480.39"/>
    </edge>
    <edge id=":11436922548_2" function="internal">
        <lane id=":11436922548_2_0" index="0" disallow="tram rail_urban rail rail_electric rail_fast ship container cable_car subway aircraft wheelchair scooter drone" speed="16.67" length="9.40" shape="361450.45,6642479.27 361453.73,6642488.08"/>
    </edge>
    <edge id=":11436922548_3" function="internal">
        <lane id=":11436922548_3_0" index="0" allow="pedestrian delivery bicycle" speed="6.56" length="3.55" shape="361450.45,6642479.27 361451.11,6642481.94 361451.04,6642482.74"/>
    </edge>
    <edge id=":11436922548_6" function="internal">
        <lane id=":11436922548_6_0" index="0" allow="pedestrian delivery bicycle" speed="6.56" length="5.58" shape="361451.04,6642482.74 361450.92,6642484.11 361449.86,6642485.77 361447.95,6642486.93"/>
    </edge>
    <edge id=":11436922548_4" function="internal">
        <lane id=":11436922548_4_0" index="0" allow="pedestrian delivery bicycle" speed="4.64" length="4.04" shape="361446.80,6642483.94 361447.49,6642483.47 361447.83,6642482.72 361447.81,6642481.69 361447.45,6642480.39"/>
    </edge>
    <edge id=":11436922548_5" function="internal">
        <lane id=":11436922548_5_0" index="0" allow="pedestrian delivery bicycle" speed="6.53" length="9.19" shape="361446.80,6642483.94 361449.00,6642483.52 361450.89,6642484.07 361452.47,6642485.59 361453.73,6642488.08"/>
    </edge>
    <edge id=":11436922549_0" function="internal">
        <lane id=":11436922549_0_0" index="0" allow="pedestrian delivery bicycle" speed="5.56" length="9.19" shape="361439.37,6642493.49 361436.09,6642484.91"/>
    </edge>
    <edge id=":11436922549_1" function="internal">
        <lane id=":11436922549_1_0" index="0" allow="pedestrian delivery bicycle" speed="5.56" length="10.14" shape="361439.37,6642493.49 361438.75,6642490.79 361439.16,6642488.54 361440.58,6642486.74 361443.01,6642485.39"/>
    </edge>
    <edge id=":11436922549_2" function="internal">
        <lane id=":11436922549_2_0" index="0" allow="pedestrian delivery bicycle" speed="5.03" length="4.97" shape="361444.16,6642488.37 361442.96,6642489.04 361442.26,6642489.92 361442.06,6642491.02 361442.36,6642492.34"/>
    </edge>
    <edge id=":11436922549_3" function="internal">
        <lane id=":11436922549_3_0" index="0" allow="pedestrian delivery bicycle" speed="5.56" length="10.02" shape="361444.16,6642488.37 361441.44,6642489.00 361439.19,6642488.63 361437.41,6642487.27 361436.09,6642484.91"/>
    </edge>
    <edge id=":11436922549_4" function="internal">
        <lane id=":11436922549_4_0" index="0" allow="pedestrian delivery bicycle" speed="4.98" length="4.86" shape="361439.07,6642483.77 361439.71,6642484.89 361440.58,6642485.54 361441.68,6642485.70 361443.01,6642485.39"/>
    </edge>
    <edge id=":11436922549_5" function="internal">
        <lane id=":11436922549_5_0" index="0" allow="pedestrian delivery bicycle" speed="5.56" length="9.18" shape="361439.07,6642483.77 361442.36,6642492.34"/>
    </edge>
    <edge id=":11476279727_0" function="internal">
        <lane id=":11476279727_0_0" index="0" allow="pedestrian delivery bicycle" speed="5.56" length="1.00" shape="361447.77,6642487.00 361448.70,6642486.64"/>
    </edge>
    <edge id=":11476279727_1" function="internal">
        <lane id=":11476279727_1_0" index="0" allow="pedestrian delivery bicycle" speed="5.56" length="1.01" shape="361447.56,6642483.65 361446.62,6642484.01"/>
    </edge>
    <edge id=":12401767730_0" function="internal">
        <lane id=":12401767730_0_0" index="0" disallow="tram rail_urban rail rail_electric rail_fast ship container cable_car subway aircraft wheelchair scooter drone" speed="16.67" length="2.10" shape="362996.43,6647957.18 362996.70,6647957.18"/>
        <lane id=":12401767730_0_1" index="1" disallow="tram rail_urban rail rail_electric rail_fast ship container cable_car subway aircraft wheelchair scooter drone" speed="16.67" length="2.10" shape="362996.40,6647960.38 362996.70,6647960.38"/>
        <lane id=":12401767730_0_2" index="2" disallow="tram rail_urban rail rail_electric rail_fast ship container cable_car subway aircraft wheelchair scooter drone" speed="16.67" length="2.10" shape="362996.37,6647963.58 362996.70,6647957.18"/>
        <lane id=":12401767730_0_3" index="3" disallow="tram rail_urban rail rail_electric rail_fast ship container cable_car subway aircraft wheelchair scooter drone" speed="16.67" length="2.10" shape="362996.37,6647963.58 362996.70,6647960.38"/>
        <lane id=":12401767730_0_4" index="4" disallow="tram rail_urban rail rail_electric rail_fast ship container cable_car subway aircraft wheelchair scooter drone" speed="16.67" length="2.10" shape="362996.37,6647963.58 362996.70,6647963.58"/>
    </edge>
    <edge id=":13287660139_0" function="internal">
        <lane id=":13287660139_0_0" index="0" disallow="tram rail_urban rail rail_electric rail_fast ship container cable_car subway aircraft wheelchair scooter drone" speed="25.00" length="8.19" shape="361350.15,6641933.47 361347.85,6641932.73 361346.16,6641932.58 361344.48,6641932.43 361342.19,6641931.67"/>
        <lane id=":13287660139_0_1" index="1" disallow="tram rail_urban rail rail_electric rail_fast ship container cable_car subway aircraft wheelchair scooter drone" speed="25.00" length="8.19" shape="361351.44,6641930.54 361349.15,6641929.81 361347.47,6641929.66 361345.79,6641929.51 361343.51,6641928.75"/>
    </edge>
    <edge id=":13287660140_0" function="internal">
        <lane id=":13287660140_0_0" index="0" disallow="tram rail_urban rail rail_electric rail_fast ship container cable_car subway aircraft wheelchair scooter drone" speed="27.78" length="8.35" shape="361499.51,6642004.04 361497.52,6642002.57 361496.16,6642001.53 361494.73,6642000.62 361492.51,6641999.55"/>
    </edge>
    <edge id=":13287660140_1" function="internal">
        <lane id=":13287660140_1_0" index="0" disallow="tram rail_urban rail rail_electric rail_fast ship container cable_car subway aircraft wheelchair scooter drone" speed="25.00" length="8.55" shape="361501.19,6642000.96 361498.92,6641999.84 361497.48,6641998.83 361496.05,6641997.79 361493.80,6641996.62"/>
        <lane id=":13287660140_1_1" index="1" disallow="tram rail_urban rail rail_electric rail_fast ship container cable_car subway aircraft wheelchair scooter drone" speed="25.00" length="8.55" shape="361502.40,6641997.99 361500.15,6641996.88 361498.73,6641995.88 361497.32,6641994.86 361495.09,6641993.69"/>
    </edge>
    <edge id=":1437361657_0" function="internal">
        <lane id=":1437361657_0_0" index="0" allow="private emergency authority army vip passenger hov taxi bus coach delivery truck trailer motorcycle evehicle custom1 custom2" speed="30.56" length="2.22" shape="362531.25,6647311.63 362531.29,6647312.00"/>
        <lane id=":1437361657_0_1" index="1" allow="private emergency authority army vip passenger hov taxi bus coach delivery truck trailer motorcycle evehicle custom1 custom2" speed="30.56" length="2.22" shape="362531.25,6647311.63 362528.11,6647312.39"/>
        <lane id=":1437361657_0_2" index="2" allow="private emergency authority army vip passenger hov taxi bus coach delivery truck trailer motorcycle evehicle custom1 custom2" speed="30.56" length="2.22" shape="362528.06,6647311.93 362531.29,6647312.00"/>
        <lane id=":1437361657_0_3" index="3" allow="private emergency authority army vip passenger hov taxi bus coach delivery truck trailer motorcycle evehicle custom1 custom2" speed="30.56" length="2.22" shape="362528.06,6647311.93 362528.11,6647312.39"/>
        <lane id=":1437361657_0_4" index="4" allow="private emergency authority army vip passenger hov taxi bus coach delivery truck trailer motorcycle evehicle custom1 custom2" speed="30.56" length="2.22" shape="362528.06,6647311.93 362524.93,6647312.79"/>
        <lane id=":1437361657_0_5" index="5" allow="private emergency authority army vip passenger hov taxi bus coach delivery truck trailer motorcycle evehicle custom1 custom2" speed="30.56" length="2.22" shape="362524.87,6647312.23 362528.11,6647312.39"/>
        <lane id=":1437361657_0_6" index="6" allow="private emergency authority army vip passenger hov taxi bus coach delivery truck trailer motorcycle evehicle custom1 custom2" speed="30.56" length="2.22" shape="362524.87,6647312.23 362524.93,6647312.79"/>
        <lane id=":1437361657_0_7" index="7" allow="private emergency authority army vip passenger hov taxi bus coach delivery truck trailer motorcycle evehicle custom1 custom2" speed="30.56" length="2.22" shape="362524.87,6647312.23 362521.76,6647313.18"/>
        <lane id=":1437361657_0_8" index="8" allow="private emergency authority army vip passenger hov taxi bus coach delivery truck trailer motorcycle evehicle custom1 custom2" speed="30.56" length="2.22" shape="362521.69,6647312.53 362524.93,6647312.79"/>
        <lane id=":1437361657_0_9" index="9" allow="private emergency authority army vip passenger hov taxi bus coach delivery truck trailer motorcycle evehicle custom1 custom2" speed="30.56" length="2.22" shape="362521.69,6647312.53 362521.76,6647313.18"/>
        <lane id=":1437361657_0_10" index="10" allow="private emergency authority army vip passenger hov taxi bus coach delivery truck trailer motorcycle evehicle custom1 custom2" speed="30.56" length="2.22" shape="362521.69,6647312.53 362518.58,6647313.58"/>
        <lane id=":1437361657_0_11" index="11" allow="private emergency authority army vip passenger hov taxi bus coach delivery truck trailer motorcycle evehicle custom1 custom2" speed="30.56" length="2.22" shape="362518.50,6647312.83 362521.76,6647313.18"/>
        <lane id=":1437361657_0_12" index="12" allow="private emergency authority army vip passenger hov taxi bus coach delivery truck trailer motorcycle evehicle custom1 custom2" speed="30.56" length="2.22" shape="362518.50,6647312.83 362518.58,6647313.58"/>
    </edge>
    <edge id=":1437361660_0" function="internal">
        <lane id=":1437361660_0_0" index="0" allow="private emergency authority army vip passenger hov taxi bus coach delivery truck trailer motorcycle evehicle custom1 custom2" speed="30.56" length="2.05" shape="362499.39,6647326.99 362499.35,6647326.70"/>
        <lane id=":1437361660_0_1" index="1" allow="private emergency authority army vip passenger hov taxi bus coach delivery truck trailer motorcycle evehicle custom1 custom2" speed="30.56" length="2.05" shape="362499.39,6647326.99 362502.53,6647326.33"/>
        <lane id=":1437361660_0_2" index="2" allow="private emergency authority army vip passenger hov taxi bus coach delivery truck trailer motorcycle evehicle custom1 custom2" speed="30.56" length="2.05" shape="362502.57,6647326.62 362499.35,6647326.70"/>
        <lane id=":1437361660_0_3" index="3" allow="private emergency authority army vip passenger hov taxi bus coach delivery truck trailer motorcycle evehicle custom1 custom2" speed="30.56" length="2.05" shape="362502.57,6647326.62 362502.53,6647326.33"/>
        <lane id=":1437361660_0_4" index="4" allow="private emergency authority army vip passenger hov taxi bus coach delivery truck trailer motorcycle evehicle custom1 custom2" speed="30.56" length="2.05" shape="362502.57,6647326.62 362505.71,6647325.96"/>
        <lane id=":1437361660_0_5" index="5" allow="private emergency authority army vip passenger hov taxi bus coach delivery truck trailer motorcycle evehicle custom1 custom2" speed="30.56" length="2.05" shape="362505.75,6647326.26 362502.53,6647326.33"/>
        <lane id=":1437361660_0_6" index="6" allow="private emergency authority army vip passenger hov taxi bus coach delivery truck trailer motorcycle evehicle custom1 custom2" speed="30.56" length="2.05" shape="362505.75,6647326.26 362505.71,6647325.96"/>
        <lane id=":1437361660_0_7" index="7" allow="private emergency authority army vip passenger hov taxi bus coach delivery truck trailer motorcycle evehicle custom1 custom2" speed="30.56" length="2.05" shape="362505.75,6647326.26 362508.89,6647325.59"/>
        <lane id=":1437361660_0_8" index="8" allow="private emergency authority army vip passenger hov taxi bus coach delivery truck trailer motorcycle evehicle custom1 custom2" speed="30.56" length="2.05" shape="362508.93,6647325.89 362505.71,6647325.96"/>
        <lane id=":1437361660_0_9" index="9" allow="private emergency authority army vip passenger hov taxi bus coach delivery truck trailer motorcycle evehicle custom1 custom2" speed="30.56" length="2.05" shape="362508.93,6647325.89 362508.89,6647325.59"/>
    </edge>
    <edge id=":1437361662_0" function="internal">
        <lane id=":1437361662_0_0" index="0" allow="private emergency authority army vip passenger hov taxi bus coach delivery truck trailer motorcycle evehicle custom1 custom2" speed="30.56" length="2.40" shape="362540.09,6647382.77 362540.12,6647383.02"/>
        <lane id=":1437361662_0_1" index="1" allow="private emergency authority army vip passenger hov taxi bus coach delivery truck trailer motorcycle evehicle custom1 custom2" speed="30.56" length="2.40" shape="362540.09,6647382.77 362536.95,6647383.44"/>
        <lane id=":1437361662_0_2" index="2" allow="private emergency authority army vip passenger hov taxi bus coach delivery truck trailer motorcycle evehicle custom1 custom2" speed="30.56" length="2.40" shape="362536.92,6647383.17 362540.12,6647383.02"/>
        <lane id=":1437361662_0_3" index="3" allow="private emergency authority army vip passenger hov taxi bus coach delivery truck trailer motorcycle evehicle custom1 custom2" speed="30.56" length="2.40" shape="362536.92,6647383.17 362536.95,6647383.44"/>
        <lane id=":1437361662_0_4" index="4" allow="private emergency authority army vip passenger hov taxi bus coach delivery truck trailer motorcycle evehicle custom1 custom2" speed="30.56" length="2.40" shape="362536.92,6647383.17 362533.78,6647383.86"/>
        <lane id=":1437361662_0_5" index="5" allow="private emergency authority army vip passenger hov taxi bus coach delivery truck trailer motorcycle evehicle custom1 custom2" speed="30.56" length="2.40" shape="362533.74,6647383.56 362536.95,6647383.44"/>
        <lane id=":1437361662_0_6" index="6" allow="private emergency authority army vip passenger hov taxi bus coach delivery truck trailer motorcycle evehicle custom1 custom2" speed="30.56" length="2.40" shape="362533.74,6647383.56 362533.78,6647383.86"/>
        <lane id=":1437361662_0_7" index="7" allow="private emergency authority army vip passenger hov taxi bus coach delivery truck trailer motorcycle evehicle custom1 custom2" speed="30.56" length="2.40" shape="362533.74,6647383.56 362530.61,6647384.28"/>
        <lane id=":1437361662_0_8" index="8" allow="private emergency authority army vip passenger hov taxi bus coach delivery truck trailer motorcycle evehicle custom1 custom2" speed="30.56" length="2.40" shape="362530.57,6647383.96 362533.78,6647383.86"/>
        <lane id=":1437361662_0_9" index="9" allow="private emergency authority army vip passenger hov taxi bus coach delivery truck trailer motorcycle evehicle custom1 custom2" speed="30.56" length="2.40" shape="362530.57,6647383.96 362530.61,6647384.28"/>
        <lane id=":1437361662_0_10" index="10" allow="private emergency authority army vip passenger hov taxi bus coach delivery truck trailer motorcycle evehicle custom1 custom2" speed="30.56" length="2.40" shape="362530.57,6647383.96 362527.43,6647384.70"/>
        <lane id=":1437361662_0_11" index="11" allow="private emergency authority army vip passenger hov taxi bus coach delivery truck trailer motorcycle evehicle custom1 custom2" speed="30.56" length="2.40" shape="362527.39,6647384.35 362533.78,6647383.86"/>
        <lane id=":1437361662_0_12" index="12" allow="private emergency authority army vip passenger hov taxi bus coach delivery truck trailer motorcycle evehicle custom1 custom2" speed="30.56" length="2.40" shape="362527.39,6647384.35 362530.61,6647384.28"/>
        <lane id=":1437361662_0_13" index="13" allow="private emergency authority army vip passenger hov taxi bus coach delivery truck trailer motorcycle evehicle custom1 custom2" speed="30.56" length="2.40" shape="362527.39,6647384.35 362527.43,6647384.70"/>
    </edge>
    <edge id=":1437361664_0" function="internal">
        <lane id=":1437361664_0_0" index="0" allow="private emergency authority army vip passenger hov taxi bus coach delivery truck trailer motorcycle evehicle custom1 custom2" speed="30.56" length="8.21" shape="362509.47,6647400.63 362508.98,6647398.29 362508.26,6647396.76 362507.53,6647395.24 362507.01,6647392.90"/>
        <lane id=":1437361664_0_1" index="1" allow="private emergency authority army vip passenger hov taxi bus coach delivery truck trailer motorcycle evehicle custom1 custom2" speed="30.56" length="8.21" shape="362512.66,6647400.30 362512.16,6647397.94 362511.44,6647396.41 362510.71,6647394.88 362510.19,6647392.53"/>