<routes>
<vType id="car" accel="2.6" decel="4.5" sigma="0.6" tau="1.2" />
<flow id="morning_0" from="667958216" to="1420264372#1" vehsPerHour="2400" begin="0" end="3600" />
<flow id="morning_1" from="667958216" to="174299621" vehsPerHour="3600" begin="0" end="3600" />
<flow id="morning_2" from="667958216" to="751413553" vehsPerHour="3600" begin="0" end="3600" />
<flow id="morning_3" from="667958216" to="721607116" vehsPerHour="5850" begin="0" end="3600" />
<flow id="morning_4" from="667958216" to="84751021" vehsPerHour="3000" begin="0" end="3600" />
<flow id="morning_5" from="667958216" to="835094679#8" vehsPerHour="10" begin="0" end="3600" />
<flow id="morning_6" from="1420264373" to="667961042" vehsPerHour="2400" begin="0" end="3600" />
<flow id="morning_7" from="1420264373" to="174299621" vehsPerHour="9000" begin="0" end="3600" />
<flow id="morning_8" from="1420264373" to="751413553" vehsPerHour="3600" begin="0" end="3600" />
<flow id="morning_9" from="1420264373" to="721607116" vehsPerHour="2400" begin="0" end="3600" />
<flow id="morning_10" from="1420264373" to="84751021" vehsPerHour="3000" begin="0" end="3600" />
<flow id="morning_11" from="1420264373" to="835094679#8" vehsPerHour="10" begin="0" end="3600" />
<flow id="morning_12" from="218207734" to="667961042" vehsPerHour="1200" begin="0" end="3600" />
<flow id="morning_13" from="218207734" to="1420264372#1" vehsPerHour="1200" begin="0" end="3600" />
<flow id="morning_14" from="218207734" to="751413553" vehsPerHour="1200" begin="0" end="3600" />
<flow id="morning_15" from="218207734" to="721607116" vehsPerHour="1200" begin="0" end="3600" />
<flow id="morning_16" from="218207734" to="84751021" vehsPerHour="1200" begin="0" end="3600" />
<flow id="morning_17" from="218207734" to="835094679#8" vehsPerHour="10" begin="0" end="3600" />
<flow id="morning_18" from="368327489" to="667961042" vehsPerHour="1200" begin="0" end="3600" />
<flow id="morning_19" from="368327489" to="1420264372#1" vehsPerHour="1200" begin="0" end="3600" />
<flow id="morning_20" from="368327489" to="174299621" vehsPerHour="1200" begin="0" end="3600" />
<flow id="morning_21" from="368327489" to="721607116" vehsPerHour="1200" begin="0" end="3600" />
<flow id="morning_22" from="368327489" to="84751021" vehsPerHour="1200" begin="0" end="3600" />
<flow id="morning_23" from="368327489" to="835094679#8" vehsPerHour="10" begin="0" end="3600" />
<flow id="morning_24" from="187782398" to="667961042" vehsPerHour="1950" begin="0" end="3600" />
<flow id="morning_25" from="187782398" to="1420264372#1" vehsPerHour="800" begin="0" end="3600" />
<flow id="morning_26" from="187782398" to="174299621" vehsPerHour="1200" begin="0" end="3600" />
<flow id="morning_27" from="187782398" to="751413553" vehsPerHour="1200" begin="0" end="3600" />
<flow id="morning_28" from="187782398" to="84751021" vehsPerHour="1000" begin="0" end="3600" />
<flow id="morning_29" from="187782398" to="835094679#8" vehsPerHour="10" begin="0" end="3600" />
<flow id="morning_30" from="84751023" to="667961042" vehsPerHour="3000" begin="0" end="3600" />
<flow id="morning_31" from="84751023" to="1420264372#1" vehsPerHour="3000" begin="0" end="3600" />
<flow id="morning_32" from="84751023" to="174299621" vehsPerHour="3600" begin="0" end="3600" />
<flow id="morning_33" from="84751023" to="751413553" vehsPerHour="12000" begin="0" end="3600" />
<flow id="morning_34" from="84751023" to="721607116" vehsPerHour="15000" begin="0" end="3600" />
<flow id="morning_35" from="84751023" to="835094679#8" vehsPerHour="10" begin="0" end="3600" />
<flow id="morning_36" from="-835094679#8" to="667961042" vehsPerHour="10" begin="0" end="3600" />
<flow id="morning_37" from="-835094679#8" to="1420264372#1" vehsPerHour="10" begin="0" end="3600" />
<flow id="morning_38" from="-835094679#8" to="174299621" vehsPerHour="10" begin="0" end="3600" />
<flow id="morning_39" from="-835094679#8" to="751413553" vehsPerHour="10" begin="0" end="3600" />
<flow id="morning_40" from="-835094679#8" to="721607116" vehsPerHour="10" begin="0" end="3600" />
<flow id="morning_41" from="-835094679#8" to="84751021" vehsPerHour="10" begin="0" end="3600" />
</routes>